6

Ti       0.00000000       1.89210000       2.37865000
Ti       0.00000000       0.00000000      -0.00000000
O       0.00000000       0.00000000       7.53461174
O       0.00000000       1.89210000       0.39866174
O       0.00000000       1.89210000       4.35863826
O       0.00000000       0.00000000       1.97998826
VEC1      -1.89210000       1.89210000       4.75730000 
VEC2       1.89210000      -1.89210000       4.75730000 
VEC3       1.89210000       1.89210000      -4.75730000 
