4

Cu      -1.16325000      -0.85250000       0.00000000
Cu      -1.58405000       0.85250000       2.51909500
O      -0.21040000       1.41856000       1.25954750
O       0.21040000      -1.41856000      -1.25954750
VEC1       2.32650000      -1.70500000       0.00000000 
VEC2       2.32650000       1.70500000       0.00000000 
VEC3      -0.84160000       0.00000000       5.03819000 
