5

S       0.00000000       0.00000000       5.32430010
S      -0.00000000      -0.00000000       1.79469990
Ni       0.73098905      -1.26611018       3.55950000
Ni      -1.46197811       0.00000000       3.55950000
Ni       0.73098905       1.26611018       3.55950000
VEC1       2.86550001       1.65439720       2.37300000 
VEC2      -2.86550001       1.65439720       2.37300000 
VEC3       0.00000000      -3.30879440       2.37300000 
