6

Mo       3.07500000      -1.82442685       0.00000000
Mo      -3.07500000       1.82442685       0.00000000
S      -1.49445000      -1.82442685       0.00000000
S       4.65555000       1.82442685       0.00000000
S       1.49445000       1.82442685       0.00000000
S      -4.65555000      -1.82442685       0.00000000
VEC1     100.00000000       0.00000000      -0.00000000 
VEC2       0.00000000       2.73664028      -1.58000000 
VEC3       0.00000000      -2.73664028      -1.58000000 
